<?xml version="1.0" encoding="UTF-8"?>

<!-- generated on 2024-07-01 08:55:50 by Eclipse SUMO netgenerate Version 1.20.0
<configuration xmlns:xsi="http://www.w3.org/2001/XMLSchema-instance" xsi:noNamespaceSchemaLocation="http://sumo.dlr.de/xsd/netgenerateConfiguration.xsd">

    <random_network>
        <rand value="true"/>
    </random_network>

    <output>
        <output-file value="test_network.net.xml"/>
    </output>

    <random_number>
        <seed value="43"/>
    </random_number>

</configuration>
-->

<net version="1.20" junctionCornerDetail="5" limitTurnSpeed="5.50" xmlns:xsi="http://www.w3.org/2001/XMLSchema-instance" xsi:noNamespaceSchemaLocation="http://sumo.dlr.de/xsd/net_file.xsd">

    <location netOffset="880.60,907.46" convBoundary="0.00,0.00,2245.08,1956.21" origBoundary="-880.60,-907.46,1364.48,1048.75" projParameter="!"/>

    <edge id=":1_0" function="internal">
        <lane id=":1_0_0" index="0" speed="11.76" length="14.51" shape="883.92,913.54 881.58,911.60 878.56,910.24 874.86,909.45 870.49,909.26"/>
    </edge>
    <edge id=":1_1" function="internal">
        <lane id=":1_1_0" index="0" speed="13.89" length="17.04" shape="883.92,913.54 881.27,910.46 878.48,906.99 875.76,903.47 873.33,900.20"/>
    </edge>
    <edge id=":1_2" function="internal">
        <lane id=":1_2_0" index="0" speed="8.65" length="3.95" shape="883.92,913.54 881.93,910.44 881.88,910.19"/>
    </edge>
    <edge id=":1_3" function="internal">
        <lane id=":1_3_0" index="0" speed="3.65" length="1.44" shape="883.92,913.54 883.72,912.11"/>
    </edge>
    <edge id=":1_16" function="internal">
        <lane id=":1_16_0" index="0" speed="8.65" length="10.87" shape="881.88,910.19 881.36,907.17 882.22,903.74 884.52,900.14"/>
    </edge>
    <edge id=":1_17" function="internal">
        <lane id=":1_17_0" index="0" speed="3.65" length="3.23" shape="883.72,912.11 884.04,911.28 884.91,911.04 886.30,911.40"/>
    </edge>
    <edge id=":1_4" function="internal">
        <lane id=":1_4_0" index="0" speed="7.28" length="10.21" shape="887.00,902.17 885.35,904.71 884.68,907.10 885.00,909.33 886.30,911.40"/>
    </edge>
    <edge id=":1_5" function="internal">
        <lane id=":1_5_0" index="0" speed="13.16" length="18.53" shape="887.00,902.17 883.86,905.19 880.06,907.38 875.60,908.73 870.49,909.26"/>
    </edge>
    <edge id=":1_6" function="internal">
        <lane id=":1_6_0" index="0" speed="7.97" length="16.80" shape="887.00,902.17 883.72,905.01 880.35,905.63 876.89,904.03 873.33,900.20"/>
    </edge>
    <edge id=":1_7" function="internal">
        <lane id=":1_7_0" index="0" speed="3.65" length="4.67" shape="887.00,902.17 885.62,902.59 884.74,902.39 884.38,901.58 884.52,900.14"/>
    </edge>
    <edge id=":1_8" function="internal">
        <lane id=":1_8_0" index="0" speed="6.46" length="10.63" shape="875.92,898.32 878.24,900.88 880.45,902.04 882.54,901.79 884.52,900.14"/>
    </edge>
    <edge id=":1_9" function="internal">
        <lane id=":1_9_0" index="0" speed="13.89" length="16.71" shape="875.92,898.32 878.31,901.54 880.96,904.98 883.68,908.36 886.30,911.40"/>
    </edge>
    <edge id=":1_10" function="internal">
        <lane id=":1_10_0" index="0" speed="7.38" length="5.10" shape="875.92,898.32 878.38,902.79"/>
    </edge>
    <edge id=":1_11" function="internal">
        <lane id=":1_11_0" index="0" speed="3.65" length="1.44" shape="875.92,898.32 875.98,899.76"/>
    </edge>
    <edge id=":1_18" function="internal">
        <lane id=":1_18_0" index="0" speed="7.38" length="12.37" shape="878.38,902.79 878.50,903.01 878.45,906.39 875.79,908.48 870.49,909.26"/>
    </edge>
    <edge id=":1_19" function="internal">
        <lane id=":1_19_0" index="0" speed="3.65" length="3.23" shape="875.98,899.76 875.57,900.55 874.69,900.70 873.33,900.20"/>
    </edge>
    <edge id=":1_12" function="internal">
        <lane id=":1_12_0" index="0" speed="5.59" length="9.35" shape="870.43,906.06 873.26,905.64 874.69,904.52 874.71,902.71 873.33,900.20"/>
    </edge>
    <edge id=":1_13" function="internal">
        <lane id=":1_13_0" index="0" speed="12.17" length="15.76" shape="870.43,906.06 874.84,905.62 878.65,904.49 881.88,902.66 884.52,900.14"/>
    </edge>
    <edge id=":1_14" function="internal">
        <lane id=":1_14_0" index="0" speed="12.79" length="17.25" shape="870.43,906.06 875.50,906.31 879.83,907.29 883.44,908.98 886.30,911.40"/>
    </edge>
    <edge id=":1_15" function="internal">
        <lane id=":1_15_0" index="0" speed="3.65" length="4.67" shape="870.43,906.06 871.64,906.83 872.06,907.63 871.68,908.43 870.49,909.26"/>
    </edge>
    <edge id=":101_0" function="internal">
        <lane id=":101_0_0" index="0" speed="5.75" length="9.17" shape="416.97,964.10 414.43,963.13 412.58,963.37 411.39,964.82 410.88,967.48"/>
    </edge>
    <edge id=":101_1" function="internal">
        <lane id=":101_1_0" index="0" speed="13.89" length="15.27" shape="416.97,964.10 413.59,962.37 410.05,960.85 406.40,959.64 402.71,958.84"/>
    </edge>
    <edge id=":101_2" function="internal">
        <lane id=":101_2_0" index="0" speed="8.78" length="15.67" shape="416.97,964.10 413.13,961.40 410.82,958.38 410.05,955.04 410.81,951.37"/>
    </edge>
    <edge id=":101_3" function="internal">
        <lane id=":101_3_0" index="0" speed="3.65" length="4.67" shape="416.97,964.10 416.30,962.82 416.34,961.92 417.07,961.42 418.51,961.29"/>
    </edge>
    <edge id=":101_4" function="internal">
        <lane id=":101_4_0" index="0" speed="7.43" length="10.97" shape="413.78,952.56 413.32,954.99 413.96,957.26 415.69,959.36 418.51,961.29"/>
    </edge>
    <edge id=":101_5" function="internal">
        <lane id=":101_5_0" index="0" speed="13.89" length="15.26" shape="413.78,952.56 412.58,956.15 411.74,959.89 411.19,963.70 410.88,967.48"/>
    </edge>
    <edge id=":101_6" function="internal">
        <lane id=":101_6_0" index="0" speed="8.66" length="3.57" shape="413.78,952.56 412.02,955.67"/>
    </edge>
    <edge id=":101_7" function="internal">
        <lane id=":101_7_0" index="0" speed="3.65" length="1.44" shape="413.78,952.56 412.59,953.38"/>
    </edge>
    <edge id=":101_16" function="internal">
        <lane id=":101_16_0" index="0" speed="8.66" length="10.33" shape="412.02,955.67 411.96,955.78 409.51,957.89 406.43,958.91 402.71,958.84"/>
    </edge>
    <edge id=":101_17" function="internal">
        <lane id=":101_17_0" index="0" speed="3.65" length="3.23" shape="412.59,953.38 411.70,953.45 411.11,952.79 410.81,951.37"/>
    </edge>
    <edge id=":101_8" function="internal">
        <lane id=":101_8_0" index="0" speed="7.27" length="9.55" shape="403.20,955.67 405.76,955.73 407.88,955.03 409.56,953.58 410.81,951.37"/>
    </edge>
    <edge id=":101_9" function="internal">
        <lane id=":101_9_0" index="0" speed="13.89" length="16.38" shape="403.20,955.67 407.06,956.54 411.06,957.87 414.96,959.51 418.51,961.29"/>
    </edge>
    <edge id=":101_10" function="internal">
        <lane id=":101_10_0" index="0" speed="8.71" length="15.68" shape="403.20,955.67 406.77,956.89 409.24,959.26 410.61,962.80 410.88,967.48"/>
    </edge>
    <edge id=":101_11" function="internal">
        <lane id=":101_11_0" index="0" speed="3.65" length="4.67" shape="403.20,955.67 404.26,956.65 404.53,957.50 404.02,958.23 402.71,958.84"/>
    </edge>
    <edge id=":101_12" function="internal">
        <lane id=":101_12_0" index="0" speed="7.35" length="10.91" shape="407.69,967.32 407.53,963.92 406.64,961.37 405.04,959.68 402.71,958.84"/>
    </edge>
    <edge id=":101_13" function="internal">
        <lane id=":101_13_0" index="0" speed="13.89" length="16.30" shape="407.69,967.32 408.03,963.37 408.65,959.21 409.58,955.12 410.81,951.37"/>
    </edge>
    <edge id=":101_14" function="internal">
        <lane id=":101_14_0" index="0" speed="7.44" length="5.06" shape="407.69,967.32 408.59,962.58 408.74,962.39"/>
    </edge>
    <edge id=":101_15" function="internal">
        <lane id=":101_15_0" index="0" speed="3.65" length="1.44" shape="407.69,967.32 408.55,966.16"/>
    </edge>
    <edge id=":101_18" function="internal">
        <lane id=":101_18_0" index="0" speed="7.44" length="11.26" shape="408.74,962.39 410.70,959.99 414.00,959.56 418.51,961.29"/>
    </edge>
    <edge id=":101_19" function="internal">
        <lane id=":101_19_0" index="0" speed="3.65" length="3.23" shape="408.55,966.16 409.37,965.80 410.15,966.24 410.88,967.48"/>
    </edge>
    <edge id=":1055_0" function="internal">
        <lane id=":1055_0_0" index="0" speed="13.89" length="16.51" shape="1648.66,1240.53 1646.64,1243.96 1644.16,1247.42 1641.46,1250.74 1638.78,1253.70"/>
    </edge>
    <edge id=":1055_1" function="internal">
        <lane id=":1055_1_0" index="0" speed="9.43" length="3.94" shape="1648.66,1240.53 1646.46,1243.38 1646.17,1243.55"/>
    </edge>
    <edge id=":1055_2" function="internal">
        <lane id=":1055_2_0" index="0" speed="3.65" length="1.44" shape="1648.66,1240.53 1647.40,1241.24"/>
    </edge>
    <edge id=":1055_9" function="internal">
        <lane id=":1055_9_0" index="0" speed="9.43" length="12.17" shape="1646.17,1243.55 1643.37,1245.09 1639.37,1245.66 1634.47,1245.09"/>
    </edge>
    <edge id=":1055_10" function="internal">
        <lane id=":1055_10_0" index="0" speed="3.65" length="3.23" shape="1647.40,1241.24 1646.51,1241.23 1645.98,1240.51 1645.81,1239.08"/>
    </edge>
    <edge id=":1055_3" function="internal">
        <lane id=":1055_3_0" index="0" speed="8.18" length="11.90" shape="1635.14,1241.96 1638.92,1242.45 1641.95,1242.13 1644.25,1241.00 1645.81,1239.08"/>
    </edge>
    <edge id=":1055_4" function="internal">
        <lane id=":1055_4_0" index="0" speed="7.40" length="16.99" shape="1635.14,1241.96 1639.97,1243.68 1642.19,1246.21 1641.80,1249.55 1638.78,1253.70"/>
    </edge>
    <edge id=":1055_5" function="internal">
        <lane id=":1055_5_0" index="0" speed="3.65" length="4.67" shape="1635.14,1241.96 1636.15,1243.00 1636.37,1243.86 1635.81,1244.56 1634.47,1245.09"/>
    </edge>
    <edge id=":1055_6" function="internal">
        <lane id=":1055_6_0" index="0" speed="5.64" length="9.27" shape="1636.46,1251.50 1638.10,1249.23 1638.32,1247.41 1637.11,1246.03 1634.47,1245.09"/>
    </edge>
    <edge id=":1055_7" function="internal">
        <lane id=":1055_7_0" index="0" speed="13.89" length="15.59" shape="1636.46,1251.50 1639.05,1248.65 1641.57,1245.60 1643.87,1242.39 1645.81,1239.08"/>
    </edge>
    <edge id=":1055_8" function="internal">
        <lane id=":1055_8_0" index="0" speed="3.65" length="1.44" shape="1636.46,1251.50 1637.87,1251.18"/>
    </edge>
    <edge id=":1055_11" function="internal">
        <lane id=":1055_11_0" index="0" speed="3.65" length="3.23" shape="1637.87,1251.18 1638.72,1251.44 1639.03,1252.28 1638.78,1253.70"/>
    </edge>
    <edge id=":106_0" function="internal">
        <lane id=":106_0_0" index="0" speed="7.63" length="11.52" shape="902.51,1254.34 900.50,1251.24 898.34,1249.30 896.03,1248.51 893.57,1248.87"/>
    </edge>
    <edge id=":106_1" function="internal">
        <lane id=":106_1_0" index="0" speed="7.40" length="16.97" shape="902.51,1254.34 900.73,1249.53 901.25,1246.21 904.06,1244.37 909.18,1244.02"/>
    </edge>
    <edge id=":106_2" function="internal">
        <lane id=":106_2_0" index="0" speed="3.65" length="4.67" shape="902.51,1254.34 902.65,1252.90 903.18,1252.18 904.07,1252.16 905.34,1252.84"/>
    </edge>
    <edge id=":106_3" function="internal">
        <lane id=":106_3_0" index="0" speed="5.64" length="9.27" shape="908.98,1247.21 906.19,1247.40 904.65,1248.41 904.37,1250.22 905.34,1252.84"/>
    </edge>
    <edge id=":106_4" function="internal">
        <lane id=":106_4_0" index="0" speed="13.89" length="15.60" shape="908.98,1247.21 905.13,1247.10 901.16,1247.28 897.26,1247.84 893.57,1248.87"/>
    </edge>
    <edge id=":106_5" function="internal">
        <lane id=":106_5_0" index="0" speed="3.65" length="1.44" shape="908.98,1247.21 907.83,1246.34"/>
    </edge>
    <edge id=":106_9" function="internal">
        <lane id=":106_9_0" index="0" speed="3.65" length="3.23" shape="907.83,1246.34 907.48,1245.51 907.93,1244.74 909.18,1244.02"/>
    </edge>
    <edge id=":106_6" function="internal">
        <lane id=":106_6_0" index="0" speed="13.89" length="16.91" shape="892.46,1245.87 896.35,1244.81 900.71,1244.18 905.12,1243.93 909.18,1244.02"/>
    </edge>
    <edge id=":106_7" function="internal">
        <lane id=":106_7_0" index="0" speed="8.94" length="4.17" shape="892.46,1245.87 896.15,1245.24 896.56,1245.36"/>
    </edge>
    <edge id=":106_8" function="internal">
        <lane id=":106_8_0" index="0" speed="3.65" length="1.44" shape="892.46,1245.87 893.86,1246.21"/>
    </edge>
    <edge id=":106_10" function="internal">
        <lane id=":106_10_0" index="0" speed="8.94" length="12.01" shape="896.56,1245.36 899.53,1246.19 902.59,1248.73 905.34,1252.84"/>
    </edge>
    <edge id=":106_11" function="internal">
        <lane id=":106_11_0" index="0" speed="3.65" length="3.23" shape="893.86,1246.21 894.52,1246.82 894.42,1247.71 893.57,1248.87"/>
    </edge>
    <edge id=":1071_0" function="internal">
        <lane id=":1071_0_0" index="0" speed="13.89" length="14.36" shape="666.76,1711.87 655.65,1702.77"/>
    </edge>
    <edge id=":1071_1" function="internal">
        <lane id=":1071_1_0" index="0" speed="7.63" length="4.17" shape="666.76,1711.87 664.02,1708.73"/>
    </edge>
    <edge id=":1071_2" function="internal">
        <lane id=":1071_2_0" index="0" speed="3.65" length="1.44" shape="666.76,1711.87 666.37,1710.48"/>
    </edge>
    <edge id=":1071_9" function="internal">
        <lane id=":1071_9_0" index="0" speed="7.63" length="11.05" shape="664.02,1708.73 663.91,1708.61 663.06,1705.45 664.21,1702.38 667.35,1699.40"/>
    </edge>
    <edge id=":1071_10" function="internal">
        <lane id=":1071_10_0" index="0" speed="3.65" length="3.23" shape="666.37,1710.48 666.59,1709.62 667.41,1709.27 668.85,1709.45"/>
    </edge>
    <edge id=":1071_3" function="internal">
        <lane id=":1071_3_0" index="0" speed="6.04" length="9.07" shape="669.20,1702.01 667.32,1703.78 666.64,1705.62 667.15,1707.50 668.85,1709.45"/>
    </edge>
    <edge id=":1071_4" function="internal">
        <lane id=":1071_4_0" index="0" speed="9.17" length="14.63" shape="669.20,1702.01 665.51,1704.07 662.02,1704.88 658.74,1704.45 655.65,1702.77"/>
    </edge>
    <edge id=":1071_5" function="internal">
        <lane id=":1071_5_0" index="0" speed="3.65" length="4.67" shape="669.20,1702.01 667.75,1702.05 666.97,1701.63 666.83,1700.74 667.35,1699.40"/>
    </edge>
    <edge id=":1071_6" function="internal">
        <lane id=":1071_6_0" index="0" speed="7.86" length="10.54" shape="657.60,1700.24 659.75,1701.37 662.09,1701.61 664.62,1700.95 667.35,1699.40"/>
    </edge>
    <edge id=":1071_7" function="internal">
        <lane id=":1071_7_0" index="0" speed="13.89" length="14.54" shape="657.60,1700.24 668.85,1709.45"/>
    </edge>
    <edge id=":1071_8" function="internal">
        <lane id=":1071_8_0" index="0" speed="3.65" length="1.44" shape="657.60,1700.24 658.06,1701.60"/>
    </edge>
    <edge id=":1071_11" function="internal">
        <lane id=":1071_11_0" index="0" speed="3.65" length="3.23" shape="658.06,1701.60 657.89,1702.48 657.09,1702.87 655.65,1702.77"/>
    </edge>
    <edge id=":1074_0" function="internal">
        <lane id=":1074_0_0" index="0" speed="5.59" length="9.35" shape="1381.34,1265.78 1379.89,1263.31 1378.33,1262.40 1376.64,1263.06 1374.83,1265.28"/>
    </edge>
    <edge id=":1074_1" function="internal">
        <lane id=":1074_1_0" index="0" speed="8.19" length="16.72" shape="1381.34,1265.78 1379.86,1260.80 1380.14,1256.91 1382.17,1254.10 1385.96,1252.39"/>
    </edge>
    <edge id=":1074_2" function="internal">
        <lane id=":1074_2_0" index="0" speed="3.65" length="4.67" shape="1381.34,1265.78 1381.61,1264.36 1382.19,1263.68 1383.08,1263.73 1384.29,1264.52"/>
    </edge>
    <edge id=":1074_3" function="internal">
        <lane id=":1074_3_0" index="0" speed="6.75" length="10.97" shape="1386.74,1255.49 1384.45,1256.59 1383.28,1258.47 1383.22,1261.11 1384.29,1264.52"/>
    </edge>
    <edge id=":1074_4" function="internal">
        <lane id=":1074_4_0" index="0" speed="13.24" length="15.74" shape="1386.74,1255.49 1383.20,1256.94 1379.96,1259.25 1377.12,1262.13 1374.83,1265.28"/>
    </edge>
    <edge id=":1074_5" function="internal">
        <lane id=":1074_5_0" index="0" speed="3.65" length="1.28" shape="1386.74,1255.49 1385.53,1255.06"/>
    </edge>
    <edge id=":1074_9" function="internal">
        <lane id=":1074_9_0" index="0" speed="3.65" length="3.39" shape="1385.53,1255.06 1385.38,1255.01 1384.80,1254.33 1384.99,1253.46 1385.96,1252.39"/>
    </edge>
    <edge id=":1074_6" function="internal">
        <lane id=":1074_6_0" index="0" speed="13.89" length="18.10" shape="1372.11,1263.59 1374.71,1260.22 1378.21,1256.85 1382.12,1254.06 1385.96,1252.39"/>
    </edge>
    <edge id=":1074_7" function="internal">
        <lane id=":1074_7_0" index="0" speed="7.38" length="6.40" shape="1372.11,1263.59 1375.49,1259.44 1376.48,1259.06"/>
    </edge>
    <edge id=":1074_8" function="internal">
        <lane id=":1074_8_0" index="0" speed="3.65" length="1.44" shape="1372.11,1263.59 1373.43,1262.99"/>
    </edge>
    <edge id=":1074_10" function="internal">
        <lane id=":1074_10_0" index="0" speed="7.38" length="11.07" shape="1376.48,1259.06 1378.65,1258.22 1381.58,1259.91 1384.29,1264.52"/>
    </edge>
    <edge id=":1074_11" function="internal">
        <lane id=":1074_11_0" index="0" speed="3.65" length="3.23" shape="1373.43,1262.99 1374.32,1263.08 1374.78,1263.84 1374.83,1265.28"/>
    </edge>
    <edge id=":1080_0" function="internal">
        <lane id=":1080_0_0" index="0" speed="13.89" length="12.62" shape="1396.45,1441.01 1394.60,1438.16 1392.81,1435.82 1390.72,1433.78 1387.98,1431.84"/>
    </edge>
    <edge id=":1080_1" function="internal">
        <lane id=":1080_1_0" index="0" speed="7.65" length="4.04" shape="1396.45,1441.01 1394.80,1437.32"/>
    </edge>
    <edge id=":1080_2" function="internal">
        <lane id=":1080_2_0" index="0" speed="3.65" length="1.44" shape="1396.45,1441.01 1396.48,1439.57"/>
    </edge>
    <edge id=":1080_9" function="internal">
        <lane id=":1080_9_0" index="0" speed="7.65" length="11.09" shape="1394.80,1437.32 1394.70,1437.09 1394.80,1433.82 1396.76,1431.19 1400.57,1429.22"/>
    </edge>
    <edge id=":1080_10" function="internal">
        <lane id=":1080_10_0" index="0" speed="3.65" length="3.23" shape="1396.48,1439.57 1396.95,1438.80 1397.84,1438.72 1399.15,1439.30"/>
    </edge>
    <edge id=":1080_3" function="internal">
        <lane id=":1080_3_0" index="0" speed="6.07" length="9.07" shape="1401.62,1432.24 1399.34,1433.42 1398.17,1434.99 1398.11,1436.95 1399.15,1439.30"/>
    </edge>
    <edge id=":1080_4" function="internal">
        <lane id=":1080_4_0" index="0" speed="11.33" length="14.10" shape="1401.62,1432.24 1397.66,1433.30 1394.06,1433.59 1390.84,1433.10 1387.98,1431.84"/>
    </edge>
    <edge id=":1080_5" function="internal">
        <lane id=":1080_5_0" index="0" speed="3.65" length="4.67" shape="1401.62,1432.24 1400.23,1431.88 1399.58,1431.25 1399.70,1430.37 1400.57,1429.22"/>
    </edge>
    <edge id=":1080_6" function="internal">
        <lane id=":1080_6_0" index="0" speed="10.17" length="11.26" shape="1389.65,1429.11 1391.86,1430.06 1394.41,1430.39 1397.31,1430.11 1400.57,1429.22"/>
    </edge>
    <edge id=":1080_7" function="internal">
        <lane id=":1080_7_0" index="0" speed="13.89" length="14.06" shape="1389.65,1429.11 1392.56,1431.22 1395.00,1433.61 1397.14,1436.30 1399.15,1439.30"/>
    </edge>
    <edge id=":1080_8" function="internal">
        <lane id=":1080_8_0" index="0" speed="3.65" length="1.44" shape="1389.65,1429.11 1390.26,1430.42"/>
    </edge>
    <edge id=":1080_11" function="internal">
        <lane id=":1080_11_0" index="0" speed="3.65" length="3.23" shape="1390.26,1430.42 1390.18,1431.32 1389.42,1431.79 1387.98,1431.84"/>
    </edge>
    <edge id=":110_0" function="internal">
        <lane id=":110_0_0" index="0" speed="13.89" length="13.35" shape="799.15,1417.36 798.89,1413.88 798.48,1410.72 797.84,1407.61 796.85,1404.26"/>
    </edge>
    <edge id=":110_1" function="internal">
        <lane id=":110_1_0" index="0" speed="7.73" length="4.07" shape="799.15,1417.36 799.49,1413.31"/>
    </edge>
    <edge id=":110_2" function="internal">
        <lane id=":110_2_0" index="0" speed="3.65" length="1.44" shape="799.15,1417.36 799.88,1416.12"/>
    </edge>
    <edge id=":110_9" function="internal">
        <lane id=":110_9_0" index="0" speed="7.73" length="10.82" shape="799.49,1413.31 799.50,1413.19 801.13,1410.37 804.03,1408.89 808.21,1408.76"/>
    </edge>
    <edge id=":110_10" function="internal">
        <lane id=":110_10_0" index="0" speed="3.65" length="3.23" shape="799.88,1416.12 800.65,1415.67 801.48,1416.02 802.35,1417.17"/>
    </edge>
    <edge id=":110_3" function="internal">
        <lane id=":110_3_0" index="0" speed="6.17" length="9.05" shape="807.86,1411.94 805.31,1412.02 803.55,1412.92 802.56,1414.64 802.35,1417.17"/>
    </edge>
    <edge id=":110_4" function="internal">
        <lane id=":110_4_0" index="0" speed="9.68" length="14.22" shape="807.86,1411.94 803.88,1411.09 800.72,1409.53 798.38,1407.25 796.85,1404.26"/>
    </edge>
    <edge id=":110_5" function="internal">
        <lane id=":110_5_0" index="0" speed="3.65" length="4.67" shape="807.86,1411.94 806.75,1411.01 806.44,1410.17 806.93,1409.42 808.21,1408.76"/>
    </edge>
    <edge id=":110_6" function="internal">
        <lane id=":110_6_0" index="0" speed="8.42" length="10.57" shape="799.88,1403.24 801.00,1405.37 802.76,1407.00 805.17,1408.13 808.21,1408.76"/>
    </edge>
    <edge id=":110_7" function="internal">
        <lane id=":110_7_0" index="0" speed="13.89" length="14.19" shape="799.88,1403.24 800.90,1406.72 801.60,1410.11 802.06,1413.56 802.35,1417.17"/>
    </edge>
    <edge id=":110_8" function="internal">
        <lane id=":110_8_0" index="0" speed="3.65" length="1.44" shape="799.88,1403.24 799.50,1404.64"/>
    </edge>
    <edge id=":110_11" function="internal">
        <lane id=":110_11_0" index="0" speed="3.65" length="3.23" shape="799.50,1404.64 798.87,1405.27 797.99,1405.14 796.85,1404.26"/>
    </edge>
    <edge id=":113_0" function="internal">
        <lane id=":113_0_0" index="0" speed="7.82" length="9.93" shape="1317.62,684.43 1316.05,682.62 1314.06,681.52 1311.66,681.12 1308.85,681.43"/>
    </edge>
    <edge id=":113_1" function="internal">
        <lane id=":113_1_0" index="0" speed="13.89" length="13.95" shape="1317.62,684.43 1315.83,681.33 1314.41,678.25 1313.26,675.06 1312.28,671.61"/>
    </edge>
    <edge id=":113_2" function="internal">
        <lane id=":113_2_0" index="0" speed="3.65" length="1.44" shape="1317.62,684.43 1317.66,682.99"/>
    </edge>
    <edge id=":113_9" function="internal">
        <lane id=":113_9_0" index="0" speed="3.65" length="3.23" shape="1317.66,682.99 1318.12,682.23 1319.01,682.14 1320.33,682.73"/>
    </edge>
    <edge id=":113_3" function="internal">
        <lane id=":113_3_0" index="0" speed="13.89" length="12.96" shape="1315.38,670.82 1316.30,674.13 1317.32,677.00 1318.60,679.76 1320.33,682.73"/>
    </edge>
    <edge id=":113_4" function="internal">
        <lane id=":113_4_0" index="0" speed="7.94" length="3.94" shape="1315.38,670.82 1315.80,674.74"/>
    </edge>
    <edge id=":113_5" function="internal">
        <lane id=":113_5_0" index="0" speed="3.65" length="1.44" shape="1315.38,670.82 1314.90,672.18"/>
    </edge>
    <edge id=":113_10" function="internal">
        <lane id=":113_10_0" index="0" speed="7.94" length="10.38" shape="1315.80,674.74 1314.86,677.81 1312.54,680.04 1308.85,681.43"/>
    </edge>
    <edge id=":113_11" function="internal">
        <lane id=":113_11_0" index="0" speed="3.65" length="3.23" shape="1314.90,672.18 1314.23,672.77 1313.35,672.58 1312.28,671.61"/>
    </edge>
    <edge id=":113_6" function="internal">
        <lane id=":113_6_0" index="0" speed="6.44" length="9.03" shape="1308.16,678.31 1310.49,677.43 1311.95,676.02 1312.55,674.08 1312.28,671.61"/>
    </edge>
    <edge id=":113_7" function="internal">
        <lane id=":113_7_0" index="0" speed="9.14" length="13.88" shape="1308.16,678.31 1312.01,677.90 1315.32,678.50 1318.09,680.11 1320.33,682.73"/>
    </edge>
    <edge id=":113_8" function="internal">
        <lane id=":113_8_0" index="0" speed="3.65" length="4.67" shape="1308.16,678.31 1309.50,678.83 1310.07,679.52 1309.85,680.39 1308.85,681.43"/>
    </edge>
    <edge id=":1189_0" function="internal">
        <lane id=":1189_0_0" index="0" speed="11.03" length="13.79" shape="209.32,763.21 206.09,765.55 203.68,768.10 202.09,770.88 201.32,773.87"/>
    </edge>
    <edge id=":1189_1" function="internal">
        <lane id=":1189_1_0" index="0" speed="13.89" length="17.63" shape="209.32,763.21 205.56,765.01 201.09,766.37 196.49,767.08 192.36,766.95"/>
    </edge>
    <edge id=":1189_2" function="internal">
        <lane id=":1189_2_0" index="0" speed="7.42" length="16.55" shape="209.32,763.21 204.80,765.19 201.47,764.90 199.33,762.34 198.37,757.50"/>
    </edge>
    <edge id=":1189_3" function="internal">
        <lane id=":1189_3_0" index="0" speed="3.65" length="4.67" shape="209.32,763.21 207.88,763.15 207.12,762.68 207.05,761.79 207.65,760.48"/>
    </edge>
    <edge id=":1189_4" function="internal">
        <lane id=":1189_4_0" index="0" speed="5.71" length="9.20" shape="201.56,757.30 202.10,759.99 203.29,761.42 205.14,761.58 207.65,760.48"/>
    </edge>
    <edge id=":1189_5" function="internal">
        <lane id=":1189_5_0" index="0" speed="13.89" length="16.59" shape="201.56,757.30 201.74,761.30 201.77,765.60 201.65,769.89 201.32,773.87"/>
    </edge>
    <edge id=":1189_6" function="internal">
        <lane id=":1189_6_0" index="0" speed="7.88" length="5.13" shape="201.56,757.30 201.25,762.15 201.12,762.39"/>
    </edge>
    <edge id=":1189_7" function="internal">
        <lane id=":1189_7_0" index="0" speed="3.65" length="1.44" shape="201.56,757.30 200.84,758.55"/>
    </edge>
    <edge id=":1189_16" function="internal">
        <lane id=":1189_16_0" index="0" speed="7.88" length="11.00" shape="201.12,762.39 199.61,765.37 196.64,766.97 192.36,766.95"/>
    </edge>
    <edge id=":1189_17" function="internal">
        <lane id=":1189_17_0" index="0" speed="3.65" length="3.23" shape="200.84,758.55 200.06,759.00 199.24,758.65 198.37,757.50"/>
    </edge>
    <edge id=":1189_8" function="internal">
        <lane id=":1189_8_0" index="0" speed="6.36" length="10.06" shape="192.89,763.79 195.45,763.77 197.22,762.72 198.19,760.63 198.37,757.50"/>
    </edge>
    <edge id=":1189_9" function="internal">
        <lane id=":1189_9_0" index="0" speed="13.85" length="15.42" shape="192.89,763.79 196.67,763.99 200.52,763.42 204.24,762.21 207.65,760.48"/>
    </edge>
    <edge id=":1189_10" function="internal">
        <lane id=":1189_10_0" index="0" speed="8.32" length="14.81" shape="192.89,763.79 196.94,765.01 199.70,767.10 201.16,770.06 201.32,773.87"/>
    </edge>
    <edge id=":1189_11" function="internal">
        <lane id=":1189_11_0" index="0" speed="3.65" length="4.67" shape="192.89,763.79 193.94,764.78 194.20,765.63 193.67,766.36 192.36,766.95"/>
    </edge>
    <edge id=":1189_12" function="internal">
        <lane id=":1189_12_0" index="0" speed="6.89" length="9.85" shape="198.15,773.51 198.02,771.04 197.01,769.13 195.12,767.76 192.36,766.95"/>
    </edge>
    <edge id=":1189_13" function="internal">
        <lane id=":1189_13_0" index="0" speed="13.89" length="16.03" shape="198.15,773.51 198.46,769.61 198.59,765.51 198.54,761.41 198.37,757.50"/>
    </edge>
    <edge id=":1189_14" function="internal">
        <lane id=":1189_14_0" index="0" speed="12.10" length="3.97" shape="198.15,773.51 199.07,769.78 199.14,769.67"/>
    </edge>
    <edge id=":1189_15" function="internal">
        <lane id=":1189_15_0" index="0" speed="3.65" length="1.44" shape="198.15,773.51 199.08,772.41"/>
    </edge>
    <edge id=":1189_18" function="internal">
        <lane id=":1189_18_0" index="0" speed="12.10" length="12.72" shape="199.14,769.67 200.97,766.37 203.83,763.27 207.65,760.48"/>
    </edge>
    <edge id=":1189_19" function="internal">
        <lane id=":1189_19_0" index="0" speed="3.65" length="3.23" shape="199.08,772.41 199.92,772.10 200.67,772.59 201.32,773.87"/>
    </edge>
    <edge id=":121_0" function="internal">
        <lane id=":121_0_0" index="0" speed="13.89" length="14.15" shape="688.35,665.68 686.01,662.91 683.66,660.35 681.13,658.02 678.21,655.90"/>
    </edge>
    <edge id=":121_1" function="internal">
        <lane id=":121_1_0" index="0" speed="7.41" length="4.65" shape="688.35,665.68 685.87,661.74"/>
    </edge>
    <edge id=":121_2" function="internal">
        <lane id=":121_2_0" index="0" speed="3.65" length="1.44" shape="688.35,665.68 688.20,664.25"/>
    </edge>
    <edge id=":121_9" function="internal">
        <lane id=":121_9_0" index="0" speed="7.41" length="12.11" shape="685.87,661.74 685.67,661.43 685.48,658.08 687.78,655.64 692.57,654.11"/>
    </edge>
    <edge id=":121_10" function="internal">
        <lane id=":121_10_0" index="0" speed="3.65" length="3.23" shape="688.20,664.25 688.55,663.43 689.42,663.22 690.81,663.63"/>
    </edge>
    <edge id=":121_3" function="internal">
        <lane id=":121_3_0" index="0" speed="5.67" length="9.23" shape="693.13,657.26 690.50,658.10 689.23,659.45 689.33,661.29 690.81,663.63"/>
    </edge>
    <edge id=":121_4" function="internal">
        <lane id=":121_4_0" index="0" speed="13.43" length="15.30" shape="693.13,657.26 689.32,657.79 685.41,657.91 681.63,657.37 678.21,655.90"/>
    </edge>
    <edge id=":121_5" function="internal">