<?xml version='1.0' encoding='us-ascii'?>
<additional>
    <chargingStation chargeDelay="2" chargeInTransit="0" power="200000" efficiency="0.95" endPos="25" id="cS_2to19_0a" lane="2to19_0" startPos="10" />
</additional>